<?xml version="1.0" encoding="UTF-8"?>

<!-- generated on 05/26/19 16:59:27 by Eclipse SUMO netedit Version 1.2.0
<configuration xmlns:xsi="http://www.w3.org/2001/XMLSchema-instance" xsi:noNamespaceSchemaLocation="http://sumo.dlr.de/xsd/netconvertConfiguration.xsd">

    <input>
        <sumo-net-file value="C:\jshan-dev\Deep-QLearning-Agent-for-Traffic-Signal-Control\TLCS\intersection\custom.net.xml"/>
    </input>

    <output>
        <output-file value="C:\jshan-dev\Deep-QLearning-Agent-for-Traffic-Signal-Control\TLCS\intersection\custom.net.xml"/>
    </output>

    <processing>
        <geometry.max-grade.fix value="false"/>
        <offset.disable-normalization value="true"/>
        <lefthand value="false"/>
    </processing>

    <junctions>
        <no-turnarounds value="true"/>
        <junctions.corner-detail value="0"/>
        <junctions.limit-turn-speed value="-1"/>
        <rectangular-lane-cut value="false"/>
    </junctions>

    <pedestrian>
        <walkingareas value="false"/>
    </pedestrian>

</configuration>
-->

<net version="1.1" xmlns:xsi="http://www.w3.org/2001/XMLSchema-instance" xsi:noNamespaceSchemaLocation="http://sumo.dlr.de/xsd/net_file.xsd">

    <location netOffset="150.00,150.00" convBoundary="-0.07,0.00,300.00,300.00" origBoundary="-150.00,-150.00,150.00,150.00" projParameter="!"/>

    <edge id=":TL_0" function="internal">
        <lane id=":TL_0_0" index="0" speed="13.90" length="20.90" shape="145.20,160.50 145.20,139.60"/>
        <lane id=":TL_0_1" index="1" speed="13.90" length="20.90" shape="148.40,160.50 148.40,139.60"/>
    </edge>
    <edge id=":TL_2" function="internal">
        <lane id=":TL_2_0" index="0" speed="13.90" length="20.80" shape="160.40,154.80 139.60,154.90"/>
        <lane id=":TL_2_1" index="1" speed="13.90" length="20.80" shape="160.40,151.60 139.60,151.70"/>
    </edge>
    <edge id=":TL_4" function="internal">
        <lane id=":TL_4_0" index="0" speed="13.90" length="20.90" shape="154.80,139.60 154.80,160.50"/>
        <lane id=":TL_4_1" index="1" speed="13.90" length="20.90" shape="151.60,139.60 151.60,160.50"/>
    </edge>
    <edge id=":TL_6" function="internal">
        <lane id=":TL_6_0" index="0" speed="13.90" length="20.80" shape="139.60,145.20 160.40,145.20"/>
        <lane id=":TL_6_1" index="1" speed="13.90" length="20.80" shape="139.60,148.40 160.40,148.40"/>
    </edge>
    <edge id=":e_0" function="internal">
        <lane id=":e_0_0" index="0" speed="13.90" length="4.67" shape="300.00,148.40 301.20,149.20 301.60,150.00 301.20,150.80 300.00,151.60"/>
    </edge>
    <edge id=":n_0" function="internal">
        <lane id=":n_0_0" index="0" speed="13.90" length="4.67" shape="151.60,300.00 150.80,301.20 150.00,301.60 149.20,301.20 148.40,300.00"/>
    </edge>
    <edge id=":s_0" function="internal">
        <lane id=":s_0_0" index="0" speed="13.90" length="4.67" shape="148.40,0.00 149.20,-1.20 150.00,-1.60 150.80,-1.20 151.60,0.00"/>
    </edge>
    <edge id=":w_0" function="internal">
        <lane id=":w_0_0" index="0" speed="13.90" length="4.82" shape="-0.07,151.70 -1.29,150.85 -1.69,150.02 -1.26,149.20 0.00,148.40"/>
    </edge>

    <edge id="e_t" from="e" to="TL" priority="-1">
        <lane id="e_t_0" index="0" speed="13.90" length="139.60" shape="300.00,154.80 160.40,154.80"/>
        <lane id="e_t_1" index="1" speed="13.90" length="139.60" shape="300.00,151.60 160.40,151.60"/>
    </edge>
    <edge id="n_t" from="n" to="TL" priority="-1">
        <lane id="n_t_0" index="0" speed="13.90" length="139.50" shape="145.20,300.00 145.20,160.50"/>
        <lane id="n_t_1" index="1" speed="13.90" length="139.50" shape="148.40,300.00 148.40,160.50"/>
    </edge>
    <edge id="s_t" from="s" to="TL" priority="-1">
        <lane id="s_t_0" index="0" speed="13.90" length="139.60" shape="154.80,0.00 154.80,139.60"/>
        <lane id="s_t_1" index="1" speed="13.90" length="139.60" shape="151.60,0.00 151.60,139.60"/>
    </edge>
    <edge id="t_e" from="TL" to="e" priority="-1">
        <lane id="t_e_0" index="0" speed="13.90" length="139.60" shape="160.40,145.20 300.00,145.20"/>
        <lane id="t_e_1" index="1" speed="13.90" length="139.60" shape="160.40,148.40 300.00,148.40"/>
    </edge>
    <edge id="t_n" from="TL" to="n" priority="-1">
        <lane id="t_n_0" index="0" speed="13.90" length="139.50" shape="154.80,160.50 154.80,300.00"/>
        <lane id="t_n_1" index="1" speed="13.90" length="139.50" shape="151.60,160.50 151.60,300.00"/>
    </edge>
    <edge id="t_s" from="TL" to="s" priority="-1">
        <lane id="t_s_0" index="0" speed="13.90" length="139.60" shape="145.20,139.60 145.20,0.00"/>
        <lane id="t_s_1" index="1" speed="13.90" length="139.60" shape="148.40,139.60 148.40,0.00"/>
    </edge>
    <edge id="t_w" from="TL" to="w" priority="-1" spreadType="center" shape="150.00,153.30 -0.07,153.30">
        <lane id="t_w_0" index="0" speed="13.90" length="139.67" shape="139.60,154.90 -0.07,154.90"/>
        <lane id="t_w_1" index="1" speed="13.90" length="139.67" shape="139.60,151.70 -0.07,151.70"/>
    </edge>
    <edge id="w_t" from="w" to="TL" priority="-1">
        <lane id="w_t_0" index="0" speed="13.90" length="139.60" shape="0.00,145.20 139.60,145.20"/>
        <lane id="w_t_1" index="1" speed="13.90" length="139.60" shape="0.00,148.40 139.60,148.40"/>
    </edge>

    <tlLogic id="TL" type="static" programID="0" offset="0">
        <phase duration="42" state="GGrrGGrr"/>
        <phase duration="3"  state="yyrryyrr"/>
        <phase duration="42" state="rrGGrrGG"/>
        <phase duration="3"  state="rryyrryy"/>
    </tlLogic>

    <junction id="TL" type="traffic_light" x="150.00" y="150.00" incLanes="n_t_0 n_t_1 e_t_0 e_t_1 s_t_0 s_t_1 w_t_0 w_t_1" intLanes=":TL_0_0 :TL_0_1 :TL_2_0 :TL_2_1 :TL_4_0 :TL_4_1 :TL_6_0 :TL_6_1" shape="143.60,160.50 156.40,160.50 160.40,156.40 160.40,143.60 156.40,139.60 143.60,139.60 139.60,143.60 139.60,156.50">
        <request index="0" response="00000000" foes="11001100" cont="0"/>
        <request index="1" response="00000000" foes="11001100" cont="0"/>
        <request index="2" response="00110011" foes="00110011" cont="0"/>
        <request index="3" response="00110011" foes="00110011" cont="0"/>
        <request index="4" response="00000000" foes="11001100" cont="0"/>
        <request index="5" response="00000000" foes="11001100" cont="0"/>
        <request index="6" response="00110011" foes="00110011" cont="0"/>
        <request index="7" response="00110011" foes="00110011" cont="0"/>
    </junction>
    <junction id="e" type="priority" x="300.00" y="150.00" incLanes="t_e_0 t_e_1" intLanes=":e_0_0" shape="300.00,150.00 300.00,143.60 300.00,150.00">
        <request index="0" response="0" foes="0" cont="0"/>
    </junction>
    <junction id="n" type="priority" x="150.00" y="300.00" incLanes="t_n_0 t_n_1" intLanes=":n_0_0" shape="150.00,300.00 156.40,300.00 150.00,300.00">
        <request index="0" response="0" foes="0" cont="0"/>
    </junction>
    <junction id="s" type="priority" x="150.00" y="0.00" incLanes="t_s_0 t_s_1" intLanes=":s_0_0" shape="150.00,0.00 143.60,0.00 150.00,0.00">
        <request index="0" response="0" foes="0" cont="0"/>
    </junction>
    <junction id="w" type="priority" x="0.00" y="150.00" incLanes="t_w_0 t_w_1" intLanes=":w_0_0" shape="0.00,150.00 0.00,156.50 0.00,150.10">
        <request index="0" response="0" foes="0" cont="0"/>
    </junction>

    <connection from="e_t" to="t_w" fromLane="0" toLane="0" via=":TL_2_0" tl="TL" linkIndex="2" dir="s" state="o"/>
    <connection from="e_t" to="t_w" fromLane="1" toLane="1" via=":TL_2_1" tl="TL" linkIndex="3" dir="s" state="o"/>
    <connection from="n_t" to="t_s" fromLane="0" toLane="0" via=":TL_0_0" tl="TL" linkIndex="0" dir="s" state="O"/>
    <connection from="n_t" to="t_s" fromLane="1" toLane="1" via=":TL_0_1" tl="TL" linkIndex="1" dir="s" state="O"/>
    <connection from="s_t" to="t_n" fromLane="0" toLane="0" via=":TL_4_0" tl="TL" linkIndex="4" dir="s" state="O"/>
    <connection from="s_t" to="t_n" fromLane="1" toLane="1" via=":TL_4_1" tl="TL" linkIndex="5" dir="s" state="O"/>
    <connection from="t_e" to="e_t" fromLane="1" toLane="1" via=":e_0_0" dir="t" state="M"/>
    <connection from="t_n" to="n_t" fromLane="1" toLane="1" via=":n_0_0" dir="t" state="M"/>
    <connection from="t_s" to="s_t" fromLane="1" toLane="1" via=":s_0_0" dir="t" state="M"/>
    <connection from="t_w" to="w_t" fromLane="1" toLane="1" via=":w_0_0" dir="t" state="M"/>
    <connection from="w_t" to="t_e" fromLane="0" toLane="0" via=":TL_6_0" tl="TL" linkIndex="6" dir="s" state="o"/>
    <connection from="w_t" to="t_e" fromLane="1" toLane="1" via=":TL_6_1" tl="TL" linkIndex="7" dir="s" state="o"/>

    <connection from=":TL_0" to="t_s" fromLane="0" toLane="0" dir="s" state="M"/>
    <connection from=":TL_0" to="t_s" fromLane="1" toLane="1" dir="s" state="M"/>
    <connection from=":TL_2" to="t_w" fromLane="0" toLane="0" dir="s" state="M"/>
    <connection from=":TL_2" to="t_w" fromLane="1" toLane="1" dir="s" state="M"/>
    <connection from=":TL_4" to="t_n" fromLane="0" toLane="0" dir="s" state="M"/>
    <connection from=":TL_4" to="t_n" fromLane="1" toLane="1" dir="s" state="M"/>
    <connection from=":TL_6" to="t_e" fromLane="0" toLane="0" dir="s" state="M"/>
    <connection from=":TL_6" to="t_e" fromLane="1" toLane="1" dir="s" state="M"/>
    <connection from=":e_0" to="e_t" fromLane="0" toLane="1" dir="t" state="M"/>
    <connection from=":n_0" to="n_t" fromLane="0" toLane="1" dir="t" state="M"/>
    <connection from=":s_0" to="s_t" fromLane="0" toLane="1" dir="t" state="M"/>
    <connection from=":w_0" to="w_t" fromLane="0" toLane="1" dir="t" state="M"/>

</net>
